Questionable use of curly braces in ".model uf4007 d (ikf=.15 n=2 is=100n rs=0.03 eg=1.11 xti=3 cjo=2.92655e-011 vj=0.851862 m=0.334552 fc=0.5 tt={tt=1.84973e-007} bv=1000 ibv=0.2 kf=0 af=1 iave=1000m vpk=800 mfg=gp1000v1a type=silicon)"
    Error: undefined symbol in: "[tt]=1.84973e-007"
Circuit: * C:\Users\kornelis\Desktop\Fast High Voltage Amplfier\B_SingleEnded_65Vpp_models.asc

Warning: Multiple definitions of model "2sd2707" Type: BJT
Warning: Multiple definitions of model "2sd2704k" Type: BJT
Warning: Multiple definitions of model "2sd2654" Type: BJT
Warning: Multiple definitions of model "2sd2537" Type: BJT
Warning: Multiple definitions of model "2sd2351" Type: BJT
Warning: Multiple definitions of model "2sd2226k" Type: BJT
Warning: Multiple definitions of model "2sd2153" Type: BJT
Warning: Multiple definitions of model "2sd2114k" Type: BJT
Warning: Multiple definitions of model "2sc4098" Type: BJT
Warning: Multiple definitions of model "2sc2412k" Type: BJT
Warning: Multiple definitions of model "2sa1037ak" Type: BJT
Warning: Multiple definitions of model "bc817-16" Type: BJT
Warning: Multiple definitions of model "bc848b" Type: BJT
Warning: Multiple definitions of model "bc807-16" Type: BJT
Warning: Multiple definitions of model "bcx17" Type: BJT
Warning: Multiple definitions of model "bc858b" Type: BJT
Warning: Multiple definitions of model "2sd1898" Type: BJT
Warning: Multiple definitions of model "d45h11" Type: BJT
Warning: Multiple definitions of model "bc856b" Type: BJT
Warning: Multiple definitions of model "bc556b" Type: BJT
Warning: Multiple definitions of model "bc846b" Type: BJT
Warning: Multiple definitions of model "bc546b" Type: BJT
Warning: Multiple definitions of model "bc327-40" Type: BJT
Warning: Multiple definitions of model "bc327-25" Type: BJT
Warning: Multiple definitions of model "bc807-40" Type: BJT
Warning: Multiple definitions of model "bc807-25" Type: BJT
Warning: Multiple definitions of model "bc857c" Type: BJT
Warning: Multiple definitions of model "bc857b" Type: BJT
Warning: Multiple definitions of model "bc857a" Type: BJT
Warning: Multiple definitions of model "bc557c" Type: BJT
Warning: Multiple definitions of model "bc557b" Type: BJT
Warning: Multiple definitions of model "bc337-40" Type: BJT
Warning: Multiple definitions of model "bc337-25" Type: BJT
Warning: Multiple definitions of model "bc817-40" Type: BJT
Warning: Multiple definitions of model "bc817-25" Type: BJT
Warning: Multiple definitions of model "bc847c" Type: BJT
Warning: Multiple definitions of model "bc847b" Type: BJT
Warning: Multiple definitions of model "bc847a" Type: BJT
Warning: Multiple definitions of model "bc547c" Type: BJT
Warning: Multiple definitions of model "bc547b" Type: BJT
Warning: Multiple definitions of model "2n3019" Type: BJT
Warning: Multiple definitions of model "bcw68g" Type: BJT
Warning: Multiple definitions of model "bcw68f" Type: BJT
Warning: Multiple definitions of model "bcw60d" Type: BJT
Warning: Multiple definitions of model "bcw60c" Type: BJT
Warning: Multiple definitions of model "bcw60b" Type: BJT
Warning: Multiple definitions of model "bcw60a" Type: BJT
Warning: Multiple definitions of model "2n3055" Type: BJT
Warning: Multiple definitions of model "2n5771" Type: BJT
Warning: Multiple definitions of model "2n5769" Type: BJT
Warning: Multiple definitions of model "2n2369" Type: BJT
Warning: Multiple definitions of model "2n5401" Type: BJT
Warning: Multiple definitions of model "2n5550" Type: BJT
Warning: Multiple definitions of model "2n4403" Type: BJT
Warning: Multiple definitions of model "2n4401" Type: BJT
Warning: Multiple definitions of model "2n2905a" Type: BJT
Warning: Multiple definitions of model "2n2219a" Type: BJT
Warning: Multiple definitions of model "2n5087" Type: BJT
Warning: Multiple definitions of model "2n5210" Type: BJT
Warning: Multiple definitions of model "2n5089" Type: BJT
Warning: Multiple definitions of model "2n3391a" Type: BJT
Warning: Multiple definitions of model "2n4126" Type: BJT
Warning: Multiple definitions of model "2n4124" Type: BJT
Warning: Multiple definitions of model "ztx1048a" Type: BJT
Warning: Multiple definitions of model "fzt849" Type: BJT
Warning: Multiple definitions of model "2n3906" Type: BJT
Warning: Multiple definitions of model "2n3904" Type: BJT
Warning: Multiple definitions of model "2n2907" Type: BJT
Warning: Multiple definitions of model "2n2222" Type: BJT
WARNING: Node NC_01 is floating.
WARNING: Node N006 is floating.

WARNING: Less than two connections to node VIN.  This node is used by V1.
WARNING: Less than two connections to node N004.  This node is used by R13.
WARNING: Less than two connections to node OP.  This node is used by V5.
WARNING: Less than two connections to node AC1.  This node is used by V7.
WARNING: Less than two connections to node NC_01.  This node is used by C13.
WARNING: Less than two connections to node N006.  This node is used by C14.
Direct Newton iteration for .op point succeeded.

Date: Wed May 22 10:05:44 2024
Total elapsed time: 0.210 seconds.

tnom = 27
temp = 27
method = trap
totiter = 38
traniter = 0
tranpoints = 0
accept = 0
rejected = 0
matrix size = 53
fillins = 21
solver = Normal
Matrix Compiler1:     218 opcodes
Matrix Compiler2:     352 opcodes
