Questionable use of curly braces in ".model uf4007 d (ikf=.15 n=2 is=100n rs=0.03 eg=1.11 xti=3 cjo=2.92655e-011 vj=0.851862 m=0.334552 fc=0.5 tt={tt=1.84973e-007} bv=1000 ibv=0.2 kf=0 af=1 iave=1000m vpk=800 mfg=gp1000v1a type=silicon)"
    Error: undefined symbol in: "[tt]=1.84973e-007"
Circuit: * C:\Users\kornelis\Desktop\Fast High Voltage Amplfier\B_SingleEnded_65Vpp_modelsII.asc

Warning: Multiple definitions of model "2sd2707" Type: BJT
Warning: Multiple definitions of model "2sd2704k" Type: BJT
Warning: Multiple definitions of model "2sd2654" Type: BJT
Warning: Multiple definitions of model "2sd2537" Type: BJT
Warning: Multiple definitions of model "2sd2351" Type: BJT
Warning: Multiple definitions of model "2sd2226k" Type: BJT
Warning: Multiple definitions of model "2sd2153" Type: BJT
Warning: Multiple definitions of model "2sd2114k" Type: BJT
Warning: Multiple definitions of model "2sc4098" Type: BJT
Warning: Multiple definitions of model "2sc2412k" Type: BJT
Warning: Multiple definitions of model "2sa1037ak" Type: BJT
Warning: Multiple definitions of model "bc817-16" Type: BJT
Warning: Multiple definitions of model "bc848b" Type: BJT
Warning: Multiple definitions of model "bc807-16" Type: BJT
Warning: Multiple definitions of model "bcx17" Type: BJT
Warning: Multiple definitions of model "bc858b" Type: BJT
Warning: Multiple definitions of model "2sd1898" Type: BJT
Warning: Multiple definitions of model "d45h11" Type: BJT
Warning: Multiple definitions of model "bc856b" Type: BJT
Warning: Multiple definitions of model "bc556b" Type: BJT
Warning: Multiple definitions of model "bc846b" Type: BJT
Warning: Multiple definitions of model "bc546b" Type: BJT
Warning: Multiple definitions of model "bc327-40" Type: BJT
Warning: Multiple definitions of model "bc327-25" Type: BJT
Warning: Multiple definitions of model "bc807-40" Type: BJT
Warning: Multiple definitions of model "bc807-25" Type: BJT
Warning: Multiple definitions of model "bc857c" Type: BJT
Warning: Multiple definitions of model "bc857b" Type: BJT
Warning: Multiple definitions of model "bc857a" Type: BJT
Warning: Multiple definitions of model "bc557c" Type: BJT
Warning: Multiple definitions of model "bc557b" Type: BJT
Warning: Multiple definitions of model "bc337-40" Type: BJT
Warning: Multiple definitions of model "bc337-25" Type: BJT
Warning: Multiple definitions of model "bc817-40" Type: BJT
Warning: Multiple definitions of model "bc817-25" Type: BJT
Warning: Multiple definitions of model "bc847c" Type: BJT
Warning: Multiple definitions of model "bc847b" Type: BJT
Warning: Multiple definitions of model "bc847a" Type: BJT
Warning: Multiple definitions of model "bc547c" Type: BJT
Warning: Multiple definitions of model "bc547b" Type: BJT
Warning: Multiple definitions of model "2n3019" Type: BJT
Warning: Multiple definitions of model "bcw68g" Type: BJT
Warning: Multiple definitions of model "bcw68f" Type: BJT
Warning: Multiple definitions of model "bcw60d" Type: BJT
Warning: Multiple definitions of model "bcw60c" Type: BJT
Warning: Multiple definitions of model "bcw60b" Type: BJT
Warning: Multiple definitions of model "bcw60a" Type: BJT
Warning: Multiple definitions of model "2n3055" Type: BJT
Warning: Multiple definitions of model "2n5771" Type: BJT
Warning: Multiple definitions of model "2n5769" Type: BJT
Warning: Multiple definitions of model "2n2369" Type: BJT
Warning: Multiple definitions of model "2n5401" Type: BJT
Warning: Multiple definitions of model "2n5550" Type: BJT
Warning: Multiple definitions of model "2n4403" Type: BJT
Warning: Multiple definitions of model "2n4401" Type: BJT
Warning: Multiple definitions of model "2n2905a" Type: BJT
Warning: Multiple definitions of model "2n2219a" Type: BJT
Warning: Multiple definitions of model "2n5087" Type: BJT
Warning: Multiple definitions of model "2n5210" Type: BJT
Warning: Multiple definitions of model "2n5089" Type: BJT
Warning: Multiple definitions of model "2n3391a" Type: BJT
Warning: Multiple definitions of model "2n4126" Type: BJT
Warning: Multiple definitions of model "2n4124" Type: BJT
Warning: Multiple definitions of model "ztx1048a" Type: BJT
Warning: Multiple definitions of model "fzt849" Type: BJT
Warning: Multiple definitions of model "2n3906" Type: BJT
Warning: Multiple definitions of model "2n3904" Type: BJT
Warning: Multiple definitions of model "2n2907" Type: BJT
Warning: Multiple definitions of model "2n2222" Type: BJT
WARNING: Less than two connections to node +.5V.  This node is used by V4.
Direct Newton iteration for .op point succeeded.

Date: Mon May 20 18:07:27 2024
Total elapsed time: 0.200 seconds.

tnom = 27
temp = 27
method = modified trap
totiter = 1782
traniter = 1738
tranpoints = 683
accept = 471
rejected = 212
matrix size = 113
fillins = 159
solver = Normal
Thread vector: 16.4/12.0[4] 11.0/4.8[4] 2.3/1.2[3] 0.5/1.3[1]  2592/500
Matrix Compiler1: 16.87 KB object code size  2.4/1.3/[0.7]
Matrix Compiler2: 12.82 KB object code size  0.9/1.6/[0.6]

