Questionable use of curly braces in ".model uf4007 d (ikf=.15 n=2 is=100n rs=0.03 eg=1.11 xti=3 cjo=2.92655e-011 vj=0.851862 m=0.334552 fc=0.5 tt={tt=1.84973e-007} bv=1000 ibv=0.2 kf=0 af=1 iave=1000m vpk=800 mfg=gp1000v1a type=silicon)"
    Error: undefined symbol in: "[tt]=1.84973e-007"
Circuit: * C:\Users\kornelis\Desktop\Product Designs\HVHF_IIB\Design Files\Spice Simulations\LT Spice\B_SingleEnded_65Vpp_models.asc

Warning: Multiple definitions of model "2sd2707" Type: BJT
Warning: Multiple definitions of model "2sd2704k" Type: BJT
Warning: Multiple definitions of model "2sd2654" Type: BJT
Warning: Multiple definitions of model "2sd2537" Type: BJT
Warning: Multiple definitions of model "2sd2351" Type: BJT
Warning: Multiple definitions of model "2sd2226k" Type: BJT
Warning: Multiple definitions of model "2sd2153" Type: BJT
Warning: Multiple definitions of model "2sd2114k" Type: BJT
Warning: Multiple definitions of model "2sc4098" Type: BJT
Warning: Multiple definitions of model "2sc2412k" Type: BJT
Warning: Multiple definitions of model "2sa1037ak" Type: BJT
Warning: Multiple definitions of model "bc817-16" Type: BJT
Warning: Multiple definitions of model "bc848b" Type: BJT
Warning: Multiple definitions of model "bc807-16" Type: BJT
Warning: Multiple definitions of model "bcx17" Type: BJT
Warning: Multiple definitions of model "bc858b" Type: BJT
Warning: Multiple definitions of model "2sd1898" Type: BJT
Warning: Multiple definitions of model "d45h11" Type: BJT
Warning: Multiple definitions of model "bc856b" Type: BJT
Warning: Multiple definitions of model "bc556b" Type: BJT
Warning: Multiple definitions of model "bc846b" Type: BJT
Warning: Multiple definitions of model "bc546b" Type: BJT
Warning: Multiple definitions of model "bc327-40" Type: BJT
Warning: Multiple definitions of model "bc327-25" Type: BJT
Warning: Multiple definitions of model "bc807-40" Type: BJT
Warning: Multiple definitions of model "bc807-25" Type: BJT
Warning: Multiple definitions of model "bc857c" Type: BJT
Warning: Multiple definitions of model "bc857b" Type: BJT
Warning: Multiple definitions of model "bc857a" Type: BJT
Warning: Multiple definitions of model "bc557c" Type: BJT
Warning: Multiple definitions of model "bc557b" Type: BJT
Warning: Multiple definitions of model "bc337-40" Type: BJT
Warning: Multiple definitions of model "bc337-25" Type: BJT
Warning: Multiple definitions of model "bc817-40" Type: BJT
Warning: Multiple definitions of model "bc817-25" Type: BJT
Warning: Multiple definitions of model "bc847c" Type: BJT
Warning: Multiple definitions of model "bc847b" Type: BJT
Warning: Multiple definitions of model "bc847a" Type: BJT
Warning: Multiple definitions of model "bc547c" Type: BJT
Warning: Multiple definitions of model "bc547b" Type: BJT
Warning: Multiple definitions of model "2n3019" Type: BJT
Warning: Multiple definitions of model "bcw68g" Type: BJT
Warning: Multiple definitions of model "bcw68f" Type: BJT
Warning: Multiple definitions of model "bcw60d" Type: BJT
Warning: Multiple definitions of model "bcw60c" Type: BJT
Warning: Multiple definitions of model "bcw60b" Type: BJT
Warning: Multiple definitions of model "bcw60a" Type: BJT
Warning: Multiple definitions of model "2n3055" Type: BJT
Warning: Multiple definitions of model "2n5771" Type: BJT
Warning: Multiple definitions of model "2n5769" Type: BJT
Warning: Multiple definitions of model "2n2369" Type: BJT
Warning: Multiple definitions of model "2n5401" Type: BJT
Warning: Multiple definitions of model "2n5550" Type: BJT
Warning: Multiple definitions of model "2n4403" Type: BJT
Warning: Multiple definitions of model "2n4401" Type: BJT
Warning: Multiple definitions of model "2n2905a" Type: BJT
Warning: Multiple definitions of model "2n2219a" Type: BJT
Warning: Multiple definitions of model "2n5087" Type: BJT
Warning: Multiple definitions of model "2n5210" Type: BJT
Warning: Multiple definitions of model "2n5089" Type: BJT
Warning: Multiple definitions of model "2n3391a" Type: BJT
Warning: Multiple definitions of model "2n4126" Type: BJT
Warning: Multiple definitions of model "2n4124" Type: BJT
Warning: Multiple definitions of model "ztx1048a" Type: BJT
Warning: Multiple definitions of model "fzt849" Type: BJT
Warning: Multiple definitions of model "2n3906" Type: BJT
Warning: Multiple definitions of model "2n3904" Type: BJT
Warning: Multiple definitions of model "2n2907" Type: BJT
Warning: Multiple definitions of model "2n2222" Type: BJT
WARNING: Less than two connections to node OP.  This node is used by V5.
WARNING: Less than two connections to node AC1.  This node is used by V7.
Direct Newton iteration failed to find .op point.  (Use ".option noopiter" to skip.)
Starting Gmin stepping
Gmin = 10
Gmin = 1.07374
Gmin = 0.115292
Gmin = 0.0123794
Gmin = 0.00132923
Gmin = 0.000142725
Gmin = 1.5325e-005
Gmin = 1.6455e-006
Gmin = 1.76685e-007
Gmin = 1.89714e-008
Gmin = 2.03704e-009
Gmin = 2.18725e-010
Gmin = 2.34854e-011
Gmin = 2.52173e-012
Gmin = 2.70769e-013
Gmin = 0
Gmin stepping succeeded in finding the operating point.


Date: Thu Jun 06 16:11:38 2024
Total elapsed time: 0.320 seconds.

tnom = 27
temp = 27
method = modified trap
totiter = 2499
traniter = 2002
tranpoints = 510
accept = 355
rejected = 155
matrix size = 45
fillins = 12
solver = Normal
Matrix Compiler1: 3.32 KB object code size  0.5/0.3/[0.2]
Matrix Compiler2: 3.95 KB object code size  0.4/0.5/[0.3]

